<configuration>
    <input>
        <net-file value="488.net.xml" />
        <route-files value="routes.rou.xml" />
    </input>

</configuration>
